Version 4
SHEET 1 1700 976
WIRE 320 -608 288 -608
WIRE 384 -608 320 -608
WIRE 288 -576 288 -608
WIRE 384 -576 384 -608
WIRE 288 -464 288 -512
WIRE 288 -464 224 -464
WIRE 384 -464 384 -496
WIRE 384 -464 288 -464
WIRE 224 -416 224 -464
WIRE 384 -416 384 -464
WIRE 288 -400 288 -464
WIRE 288 -304 288 -336
WIRE 320 -304 288 -304
WIRE 384 -304 384 -336
WIRE 384 -304 320 -304
WIRE 304 -112 160 -112
WIRE 496 -112 384 -112
WIRE 800 0 640 0
WIRE 1040 0 800 0
WIRE 160 16 160 -112
WIRE 208 16 160 16
WIRE 496 16 496 -112
WIRE 496 16 464 16
WIRE 640 32 640 0
WIRE 208 80 112 80
WIRE 528 80 464 80
WIRE 112 96 112 80
WIRE 800 112 800 0
WIRE 864 112 800 112
WIRE 1040 128 1040 0
WIRE 1040 128 928 128
WIRE 1152 128 1040 128
WIRE 208 144 16 144
WIRE 544 144 464 144
WIRE 640 144 640 96
WIRE 640 144 624 144
WIRE 656 144 640 144
WIRE 816 144 736 144
WIRE 864 144 816 144
WIRE 1152 144 1152 128
WIRE 816 160 816 144
WIRE 16 208 16 144
WIRE 208 208 128 208
WIRE 512 208 464 208
WIRE 512 240 512 208
WIRE 1152 240 1152 224
WIRE 16 256 16 208
WIRE 816 256 816 224
WIRE 16 384 16 336
WIRE 512 384 512 320
FLAG 816 256 0
FLAG 16 384 0
FLAG 128 208 -V
FLAG 16 208 Vnoise
FLAG 224 -416 0
FLAG 320 -608 +V
FLAG 320 -304 -V
FLAG 112 96 0
FLAG 528 80 +V
FLAG 896 96 +V
FLAG 896 160 -V
FLAG 512 384 0
FLAG 1152 240 0
SYMBOL voltage 384 -432 R0
WINDOW 123 0 0 Left 0
WINDOW 39 0 0 Left 0
SYMATTR InstName V1
SYMATTR Value 3.3
SYMBOL voltage 384 -592 R0
WINDOW 123 0 0 Left 0
WINDOW 39 0 0 Left 0
SYMATTR InstName V2
SYMATTR Value 3.3
SYMBOL cap 800 160 R0
SYMATTR InstName C1
SYMATTR Value 1n
SYMBOL cap 272 -576 R0
SYMATTR InstName C2
SYMATTR Value 0.1µ
SYMBOL cap 272 -400 R0
SYMATTR InstName C3
SYMATTR Value 0.1µ
SYMBOL voltage 16 240 R0
WINDOW 3 24 152 Left 2
WINDOW 123 24 124 Left 2
WINDOW 39 0 0 Left 0
SYMATTR Value SINE(0 6m 10)
SYMATTR Value2 AC 1
SYMATTR InstName V3
SYMBOL res 640 128 R90
WINDOW 0 0 56 VBottom 2
WINDOW 3 32 56 VTop 2
SYMATTR InstName R6
SYMATTR Value 16k
SYMBOL Opamps\\LT1167 336 112 R0
SYMATTR InstName U2
SYMBOL res 400 -128 R90
WINDOW 0 0 56 VBottom 2
WINDOW 3 32 56 VTop 2
SYMATTR InstName R4
SYMATTR Value 300
SYMBOL voltage 512 224 R0
WINDOW 123 0 0 Left 0
WINDOW 39 0 0 Left 0
SYMATTR InstName V4
SYMATTR Value 1.5
SYMBOL Opamps\\opamp2 896 64 R0
SYMATTR InstName U1
SYMATTR Value MC3307X
SYMBOL res 752 128 R90
WINDOW 0 0 56 VBottom 2
WINDOW 3 32 56 VTop 2
SYMATTR InstName R1
SYMATTR Value 16k
SYMBOL cap 624 32 R0
SYMATTR InstName C4
SYMATTR Value 1n
SYMBOL res 1136 128 R0
SYMATTR InstName R2
SYMATTR Value 100
TEXT 224 -648 Left 2 ;Power Rail Generation
TEXT 8 512 Left 2 !;tran 0 1 0 1u startup uic
TEXT 8 472 Left 2 !.ac dec 1000 10 1e8
TEXT 24 560 Left 2 !.lib C:\\Data\\school_2018_2019\\spring_2019\\ee3102\\ee3102_sec7_group1\\simulation\\Opamps_Comparators_ST.lib
TEXT 1128 96 Left 2 ;Any kinda load
TEXT 160 -136 Left 2 ;Gain Stage
TEXT 744 -24 Left 2 ;Filter Stage
